&NAMAATESTPROG
  NFLDUA=1,
  NFLDSU=0,
  NSMAX=10,
  NMSMAX=10,
  NDGLG=20,
  NFLEVG=3,
  NDLON=20,
  NPRINTLEV=1,
  LELAM=.TRUE.,
/
&NAMTRANS
/
&NAMPAR0
/
&NAMPAR1
/
&NAMRGRI
/

