&NAMAATESTPROG
  NFLDUA=2,
  NFLDSU=0,
  NSMAX=10,
  NMSMAX=10,
  NDGLG=20,
  NFLEVG=1,
  NDLON=20,
  NPRINTLEV=1,
  NTIME=1,
  LELAM=.TRUE.,
/
&NAMTRANS
/
&NAMPAR0
/
&NAMPAR1
/
&NAMRGRI
/

