&NAMAATESTPROG
  NFLDUA=1,
  NFLDSU=0,
  NSMAX=500,
  NMSMAX=500,
  NDGLG=1000,
  NFLEVG=5,
  NDLON=1000,
  NPRINTLEV=1,
  LELAM=.TRUE.,
/
&NAMTRANS
/
&NAMPAR0
/
&NAMPAR1
/
&NAMRGRI
/

