&NAMAATESTPROG
  NFLDUA=2,
  NFLDSU=0,
  NSMAX=50,
  NMSMAX=50,
  NDGLG=100,
  NFLEVG=1,
  NDLON=100,
  NPRINTLEV=1,
  LELAM=.TRUE.,
/
&NAMTRANS
/
&NAMPAR0
/
&NAMPAR1
/
&NAMRGRI
/

